16

H        496.74842      497.86261      499.08639
H        496.70807      497.90003      501.20861
C        497.45708      497.15432      498.67274
C        498.21917      496.39116      499.46856
C        498.19106      496.41674      500.93444
C        497.39971      497.20684      501.67347
H        497.52264      497.09032      497.59411
H        498.92093      495.69019      499.01612
H        498.87437      495.73231      501.43760
H        497.42396      497.18048      502.75539
C        502.68141      502.79427      499.63352
C        502.68887      502.81751      500.96021
H        502.01173      503.42418      499.05896
H        502.02559      503.46731      501.51986
H        503.34436      502.14410      499.07451
H        503.35821      502.18721      501.53417
